
Version,
  23.2;                                   !- Version Identifier

Timestep,
  6;                                      !- Number of Timesteps per Hour

LifeCycleCost:Parameters,
  Life Cycle Cost Parameters,             !- Name
  EndOfYear,                              !- Discounting Convention
  ConstantDollar,                         !- Inflation Approach
  0.03,                                   !- Real Discount Rate
  ,                                       !- Nominal Discount Rate
  ,                                       !- Inflation
  ,                                       !- Base Date Month
  2011,                                   !- Base Date Year
  ,                                       !- Service Date Month
  2011,                                   !- Service Date Year
  25,                                     !- Length of Study Period in Years
  ,                                       !- Tax rate
  None;                                   !- Depreciation Method

LifeCycleCost:UsePriceEscalation,
  U.S. Avg  Commercial-Electricity,       !- Name
  Electricity,                            !- Resource
  2011,                                   !- Escalation Start Year
  January,                                !- Escalation Start Month
  0.9838,                                 !- Year Escalation 1
  0.9730,                                 !- Year Escalation 2
  0.9632,                                 !- Year Escalation 3
  0.9611,                                 !- Year Escalation 4
  0.9571,                                 !- Year Escalation 5
  0.9553,                                 !- Year Escalation 6
  0.9539,                                 !- Year Escalation 7
  0.9521,                                 !- Year Escalation 8
  0.9546,                                 !- Year Escalation 9
  0.9550,                                 !- Year Escalation 10
  0.9553,                                 !- Year Escalation 11
  0.9564,                                 !- Year Escalation 12
  0.9575,                                 !- Year Escalation 13
  0.9596,                                 !- Year Escalation 14
  0.9618,                                 !- Year Escalation 15
  0.9614,                                 !- Year Escalation 16
  0.9618,                                 !- Year Escalation 17
  0.9618,                                 !- Year Escalation 18
  0.9593,                                 !- Year Escalation 19
  0.9589,                                 !- Year Escalation 20
  0.9607,                                 !- Year Escalation 21
  0.9625,                                 !- Year Escalation 22
  0.9650,                                 !- Year Escalation 23
  0.9708,                                 !- Year Escalation 24
  0.9751,                                 !- Year Escalation 25
  0.9762,                                 !- Year Escalation 26
  0.9766,                                 !- Year Escalation 27
  0.9766,                                 !- Year Escalation 28
  0.9769,                                 !- Year Escalation 29
  0.9773;                                 !- Year Escalation 30

LifeCycleCost:UsePriceEscalation,
  U.S. Avg  Commercial-Distillate Oil,    !- Name
  FuelOilNo1,                             !- Resource
  2011,                                   !- Escalation Start Year
  January,                                !- Escalation Start Month
  0.9714,                                 !- Year Escalation 1
  0.9730,                                 !- Year Escalation 2
  0.9942,                                 !- Year Escalation 3
  1.0164,                                 !- Year Escalation 4
  1.0541,                                 !- Year Escalation 5
  1.0928,                                 !- Year Escalation 6
  1.1267,                                 !- Year Escalation 7
  1.1580,                                 !- Year Escalation 8
  1.1792,                                 !- Year Escalation 9
  1.1967,                                 !- Year Escalation 10
  1.2200,                                 !- Year Escalation 11
  1.2333,                                 !- Year Escalation 12
  1.2566,                                 !- Year Escalation 13
  1.2709,                                 !- Year Escalation 14
  1.2826,                                 !- Year Escalation 15
  1.2985,                                 !- Year Escalation 16
  1.3102,                                 !- Year Escalation 17
  1.3250,                                 !- Year Escalation 18
  1.3261,                                 !- Year Escalation 19
  1.3282,                                 !- Year Escalation 20
  1.3324,                                 !- Year Escalation 21
  1.3356,                                 !- Year Escalation 22
  1.3431,                                 !- Year Escalation 23
  1.3510,                                 !- Year Escalation 24
  1.3568,                                 !- Year Escalation 25
  1.3606,                                 !- Year Escalation 26
  1.3637,                                 !- Year Escalation 27
  1.3674,                                 !- Year Escalation 28
  1.3706,                                 !- Year Escalation 29
  1.3743;                                 !- Year Escalation 30

LifeCycleCost:UsePriceEscalation,
  U.S. Avg  Commercial-Residual Oil,      !- Name
  FuelOilNo2,                             !- Resource
  2011,                                   !- Escalation Start Year
  January,                                !- Escalation Start Month
  0.8469,                                 !- Year Escalation 1
  0.8257,                                 !- Year Escalation 2
  0.8681,                                 !- Year Escalation 3
  0.8988,                                 !- Year Escalation 4
  0.9289,                                 !- Year Escalation 5
  0.9604,                                 !- Year Escalation 6
  0.9897,                                 !- Year Escalation 7
  1.0075,                                 !- Year Escalation 8
  1.0314,                                 !- Year Escalation 9
  1.0554,                                 !- Year Escalation 10
  1.0861,                                 !- Year Escalation 11
  1.1278,                                 !- Year Escalation 12
  1.1497,                                 !- Year Escalation 13
  1.1620,                                 !- Year Escalation 14
  1.1743,                                 !- Year Escalation 15
  1.1852,                                 !- Year Escalation 16
  1.1948,                                 !- Year Escalation 17
  1.2037,                                 !- Year Escalation 18
  1.2071,                                 !- Year Escalation 19
  1.2119,                                 !- Year Escalation 20
  1.2139,                                 !- Year Escalation 21
  1.2194,                                 !- Year Escalation 22
  1.2276,                                 !- Year Escalation 23
  1.2365,                                 !- Year Escalation 24
  1.2420,                                 !- Year Escalation 25
  1.2461,                                 !- Year Escalation 26
  1.2509,                                 !- Year Escalation 27
  1.2550,                                 !- Year Escalation 28
  1.2591,                                 !- Year Escalation 29
  1.2638;                                 !- Year Escalation 30

LifeCycleCost:UsePriceEscalation,
  U.S. Avg  Commercial-Natural gas,       !- Name
  NaturalGas,                             !- Resource
  2011,                                   !- Escalation Start Year
  January,                                !- Escalation Start Month
  0.9823,                                 !- Year Escalation 1
  0.9557,                                 !- Year Escalation 2
  0.9279,                                 !- Year Escalation 3
  0.9257,                                 !- Year Escalation 4
  0.9346,                                 !- Year Escalation 5
  0.9412,                                 !- Year Escalation 6
  0.9512,                                 !- Year Escalation 7
  0.9645,                                 !- Year Escalation 8
  0.9856,                                 !- Year Escalation 9
  1.0067,                                 !- Year Escalation 10
  1.0222,                                 !- Year Escalation 11
  1.0410,                                 !- Year Escalation 12
  1.0610,                                 !- Year Escalation 13
  1.0787,                                 !- Year Escalation 14
  1.0942,                                 !- Year Escalation 15
  1.1098,                                 !- Year Escalation 16
  1.1220,                                 !- Year Escalation 17
  1.1308,                                 !- Year Escalation 18
  1.1386,                                 !- Year Escalation 19
  1.1486,                                 !- Year Escalation 20
  1.1619,                                 !- Year Escalation 21
  1.1763,                                 !- Year Escalation 22
  1.1918,                                 !- Year Escalation 23
  1.2118,                                 !- Year Escalation 24
  1.2284,                                 !- Year Escalation 25
  1.2439,                                 !- Year Escalation 26
  1.2605,                                 !- Year Escalation 27
  1.2772,                                 !- Year Escalation 28
  1.2938,                                 !- Year Escalation 29
  1.3115;                                 !- Year Escalation 30

LifeCycleCost:UsePriceEscalation,
  U.S. Avg  Commercial-Coal,              !- Name
  Coal,                                   !- Resource
  2011,                                   !- Escalation Start Year
  January,                                !- Escalation Start Month
  0.9970,                                 !- Year Escalation 1
  1.0089,                                 !- Year Escalation 2
  1.0089,                                 !- Year Escalation 3
  0.9941,                                 !- Year Escalation 4
  0.9941,                                 !- Year Escalation 5
  1.0000,                                 !- Year Escalation 6
  1.0030,                                 !- Year Escalation 7
  1.0059,                                 !- Year Escalation 8
  1.0089,                                 !- Year Escalation 9
  1.0119,                                 !- Year Escalation 10
  1.0148,                                 !- Year Escalation 11
  1.0178,                                 !- Year Escalation 12
  1.0208,                                 !- Year Escalation 13
  1.0267,                                 !- Year Escalation 14
  1.0297,                                 !- Year Escalation 15
  1.0356,                                 !- Year Escalation 16
  1.0415,                                 !- Year Escalation 17
  1.0534,                                 !- Year Escalation 18
  1.0564,                                 !- Year Escalation 19
  1.0593,                                 !- Year Escalation 20
  1.0653,                                 !- Year Escalation 21
  1.0712,                                 !- Year Escalation 22
  1.0742,                                 !- Year Escalation 23
  1.0801,                                 !- Year Escalation 24
  1.0831,                                 !- Year Escalation 25
  1.0831,                                 !- Year Escalation 26
  1.0861,                                 !- Year Escalation 27
  1.0890,                                 !- Year Escalation 28
  1.0920,                                 !- Year Escalation 29
  1.0950;                                 !- Year Escalation 30

Building,
  HVACDetailed-Jun,                       !- Name
  0,                                      !- North Axis {deg}
  City,                                   !- Terrain
  ,                                       !- Loads Convergence Tolerance Value {W}
  ,                                       !- Temperature Convergence Tolerance Value {deltaC}
  FullExteriorWithReflections,            !- Solar Distribution
  ,                                       !- Maximum Number of Warmup Days
  ;                                       !- Minimum Number of Warmup Days

Shading:Building:Detailed,
  Shade_001ccd83,                         !- Name
  ,                                       !- Transmittance Schedule Name
  ,                                       !- Number of Vertices
  -29.932526305006, 26.07304873313, 4.5,  !- X,Y,Z Vertex 1 {m}
  -29.932526305006, 26.07304873313, 8.88178419700125e-16, !- X,Y,Z Vertex 2 {m}
  -30.024706673058, 26.4106917098758, 8.88178419700125e-16, !- X,Y,Z Vertex 3 {m}
  -30.024706673058, 26.4106917098758, 4.5; !- X,Y,Z Vertex 4 {m}

Shading:Building:Detailed,
  Shade_08615f25,                         !- Name
  ,                                       !- Transmittance Schedule Name
  ,                                       !- Number of Vertices
  -34.807774702708, 36.8428520086711, 22, !- X,Y,Z Vertex 1 {m}
  -34.807774702708, 36.8428520086711, 8,  !- X,Y,Z Vertex 2 {m}
  -35.3323483270836, 37.9816499967642, 8, !- X,Y,Z Vertex 3 {m}
  -35.3323483270836, 37.9816499967642, 22; !- X,Y,Z Vertex 4 {m}

Shading:Building:Detailed,
  Shade_09129961,                         !- Name
  ,                                       !- Transmittance Schedule Name
  ,                                       !- Number of Vertices
  -50.5473823176598, -2.41415831201081, 21.9325770053864, !- X,Y,Z Vertex 1 {m}
  -50.5525171989082, -2.39535000578937, 21.6013792667389, !- X,Y,Z Vertex 2 {m}
  -34.5511341838124, 1.97320932243505, 21.6013792667389, !- X,Y,Z Vertex 3 {m}
  -34.545999302564, 1.95440101621361, 21.9325770053864; !- X,Y,Z Vertex 4 {m}

Shading:Building:Detailed,
  Shade_1693395d,                         !- Name
  ,                                       !- Transmittance Schedule Name
  ,                                       !- Number of Vertices
  -25.620936988006, 16.5183795698559, 4.5, !- X,Y,Z Vertex 1 {m}
  -25.620936988006, 16.5183795698559, 8.88178419700125e-16, !- X,Y,Z Vertex 2 {m}
  -25.713117356058, 16.8560225466017, 8.88178419700125e-16, !- X,Y,Z Vertex 3 {m}
  -25.713117356058, 16.8560225466017, 4.5; !- X,Y,Z Vertex 4 {m}

Shading:Building:Detailed,
  Shade_1739f005,                         !- Name
  ,                                       !- Transmittance Schedule Name
  ,                                       !- Number of Vertices
  -35.3399329244454, 3.51377932549232, 15.0140043625832, !- X,Y,Z Vertex 1 {m}
  -35.2740898044082, 3.27260577067385, 15.0140043625832, !- X,Y,Z Vertex 2 {m}
  -50.9328077963879, -1.00240211379238, 15.0140043625832, !- X,Y,Z Vertex 3 {m}
  -50.9986509164251, -0.761228558973922, 15.0140043625832; !- X,Y,Z Vertex 4 {m}

Shading:Building:Detailed,
  Shade_1cb396d7,                         !- Name
  ,                                       !- Transmittance Schedule Name
  ,                                       !- Number of Vertices
  -50.5473823176598, -2.41415831201081, 14.9049767808914, !- X,Y,Z Vertex 1 {m}
  -50.5525171989082, -2.39535000578937, 14.573779042244, !- X,Y,Z Vertex 2 {m}
  -34.5511341838124, 1.97320932243505, 14.573779042244, !- X,Y,Z Vertex 3 {m}
  -34.545999302564, 1.95440101621361, 14.9049767808914; !- X,Y,Z Vertex 4 {m}

Shading:Building:Detailed,
  Shade_1e164fd6,                         !- Name
  ,                                       !- Transmittance Schedule Name
  ,                                       !- Number of Vertices
  -33.3817977586061, 33.7167840637492, 4.5, !- X,Y,Z Vertex 1 {m}
  -33.3817977586061, 33.7167840637492, 8.88178419700125e-16, !- X,Y,Z Vertex 2 {m}
  -33.4739781266581, 34.054427040495, 8.88178419700125e-16, !- X,Y,Z Vertex 3 {m}
  -33.4739781266581, 34.054427040495, 4.5; !- X,Y,Z Vertex 4 {m}

Shading:Building:Detailed,
  Shade_24f5029f_0,                       !- Name
  ,                                       !- Transmittance Schedule Name
  ,                                       !- Number of Vertices
  -3.8319958868954, 15.5563822845643, 12, !- X,Y,Z Vertex 1 {m}
  2.48080033066798, -0.780892114206832, 12, !- X,Y,Z Vertex 2 {m}
  10.838797890784, 2.44867568860077, 12,  !- X,Y,Z Vertex 3 {m}
  4.53854075243381, 18.7842520094318, 12; !- X,Y,Z Vertex 4 {m}

Shading:Building:Detailed,
  Shade_24f5029f_1,                       !- Name
  ,                                       !- Transmittance Schedule Name
  ,                                       !- Number of Vertices
  14.5625594404105, 3.88838274460805, 15, !- X,Y,Z Vertex 1 {m}
  14.5625594404105, 3.88838274460805, 0,  !- X,Y,Z Vertex 2 {m}
  10.838797890784, 2.44867568860077, 0,   !- X,Y,Z Vertex 3 {m}
  10.838797890784, 2.44867568860077, 12,  !- X,Y,Z Vertex 4 {m}
  2.48080033066798, -0.780892114206832, 12, !- X,Y,Z Vertex 5 {m}
  2.48080033066798, -0.780892114206832, 15; !- X,Y,Z Vertex 6 {m}

Shading:Building:Detailed,
  Shade_24f5029f_10,                      !- Name
  ,                                       !- Transmittance Schedule Name
  ,                                       !- Number of Vertices
  9.81609153990318, -19.7643443198643, 15, !- X,Y,Z Vertex 1 {m}
  9.81609153990318, -19.7643443198643, 0, !- X,Y,Z Vertex 2 {m}
  11.1263401571373, -19.2675949374368, 0, !- X,Y,Z Vertex 3 {m}
  11.1263401571373, -19.2675949374368, 15; !- X,Y,Z Vertex 4 {m}

Shading:Building:Detailed,
  Shade_24f5029f_11,                      !- Name
  ,                                       !- Transmittance Schedule Name
  ,                                       !- Number of Vertices
  2.48080033066798, -0.780892114206832, 15, !- X,Y,Z Vertex 1 {m}
  9.81609153990318, -19.7643443198643, 15, !- X,Y,Z Vertex 2 {m}
  11.1263401571373, -19.2675949374368, 15, !- X,Y,Z Vertex 3 {m}
  12.6203119458841, -23.1480683942561, 15, !- X,Y,Z Vertex 4 {m}
  18.5602269156896, -20.8586045404169, 15, !- X,Y,Z Vertex 5 {m}
  17.071175836853, -16.9872661053436, 15, !- X,Y,Z Vertex 6 {m}
  18.1722459699221, -16.5658023177659, 15, !- X,Y,Z Vertex 7 {m}
  16.9292500081579, -13.34290919547, 15,  !- X,Y,Z Vertex 8 {m}
  17.1380551557604, -13.262117119187, 15, !- X,Y,Z Vertex 9 {m}
  20.6660419086854, -11.8981019012427, 15, !- X,Y,Z Vertex 10 {m}
  14.5625594404105, 3.88838274460805, 15; !- X,Y,Z Vertex 11 {m}

Shading:Building:Detailed,
  Shade_24f5029f_12,                      !- Name
  ,                                       !- Transmittance Schedule Name
  ,                                       !- Number of Vertices
  -3.8319958868954, 15.5563822845643, 15, !- X,Y,Z Vertex 1 {m}
  -3.8319958868954, 15.5563822845643, 12, !- X,Y,Z Vertex 2 {m}
  4.53854075243381, 18.7842520094318, 12, !- X,Y,Z Vertex 3 {m}
  4.53854075243381, 18.7842520094318, 15; !- X,Y,Z Vertex 4 {m}

Shading:Building:Detailed,
  Shade_24f5029f_13,                      !- Name
  ,                                       !- Transmittance Schedule Name
  ,                                       !- Number of Vertices
  -1.74901347354849, 35.0868916754684, 15, !- X,Y,Z Vertex 1 {m}
  -1.74901347354849, 35.0868916754684, 0, !- X,Y,Z Vertex 2 {m}
  6.36846054854882, 38.2176152354247, 0,  !- X,Y,Z Vertex 3 {m}
  6.36846054854882, 38.2176152354247, 15; !- X,Y,Z Vertex 4 {m}

Shading:Building:Detailed,
  Shade_24f5029f_14,                      !- Name
  ,                                       !- Transmittance Schedule Name
  ,                                       !- Number of Vertices
  6.36846054854882, 38.2176152354247, 15, !- X,Y,Z Vertex 1 {m}
  6.36846054854882, 38.2176152354247, 0,  !- X,Y,Z Vertex 2 {m}
  5.79890216201274, 39.6842631696561, 0,  !- X,Y,Z Vertex 3 {m}
  5.79890216201274, 39.6842631696561, 15; !- X,Y,Z Vertex 4 {m}

Shading:Building:Detailed,
  Shade_24f5029f_15,                      !- Name
  ,                                       !- Transmittance Schedule Name
  ,                                       !- Number of Vertices
  5.79890216201274, 39.6842631696561, 15, !- X,Y,Z Vertex 1 {m}
  5.79890216201274, 39.6842631696561, 0,  !- X,Y,Z Vertex 2 {m}
  27.3598001095715, 47.9740370955883, 0,  !- X,Y,Z Vertex 3 {m}
  27.3598001095715, 47.9740370955883, 15; !- X,Y,Z Vertex 4 {m}

Shading:Building:Detailed,
  Shade_24f5029f_16,                      !- Name
  ,                                       !- Transmittance Schedule Name
  ,                                       !- Number of Vertices
  27.3598001095715, 47.9740370955883, 15, !- X,Y,Z Vertex 1 {m}
  27.3598001095715, 47.9740370955883, 0,  !- X,Y,Z Vertex 2 {m}
  24.5076657666375, 55.3525867777324, 0,  !- X,Y,Z Vertex 3 {m}
  24.5076657666375, 55.3525867777324, 15; !- X,Y,Z Vertex 4 {m}

Shading:Building:Detailed,
  Shade_24f5029f_17,                      !- Name
  ,                                       !- Transmittance Schedule Name
  ,                                       !- Number of Vertices
  24.5076657666375, 55.3525867777324, 15, !- X,Y,Z Vertex 1 {m}
  24.5076657666375, 55.3525867777324, 0,  !- X,Y,Z Vertex 2 {m}
  15.317190808607, 51.8325961121336, 0,   !- X,Y,Z Vertex 3 {m}
  15.317190808607, 51.8325961121336, 15;  !- X,Y,Z Vertex 4 {m}

Shading:Building:Detailed,
  Shade_24f5029f_18,                      !- Name
  ,                                       !- Transmittance Schedule Name
  ,                                       !- Number of Vertices
  15.317190808607, 51.8325961121336, 15,  !- X,Y,Z Vertex 1 {m}
  15.317190808607, 51.8325961121336, 0,   !- X,Y,Z Vertex 2 {m}
  14.2628993956187, 52.2575653690733, 0,  !- X,Y,Z Vertex 3 {m}
  14.2628993956187, 52.2575653690733, 15; !- X,Y,Z Vertex 4 {m}

Shading:Building:Detailed,
  Shade_24f5029f_19,                      !- Name
  ,                                       !- Transmittance Schedule Name
  ,                                       !- Number of Vertices
  14.2628993956187, 52.2575653690733, 15, !- X,Y,Z Vertex 1 {m}
  14.2628993956187, 52.2575653690733, 0,  !- X,Y,Z Vertex 2 {m}
  13.2847927617625, 54.7989966604926, 0,  !- X,Y,Z Vertex 3 {m}
  13.2847927617625, 54.7989966604926, 15; !- X,Y,Z Vertex 4 {m}

Shading:Building:Detailed,
  Shade_24f5029f_2,                       !- Name
  ,                                       !- Transmittance Schedule Name
  ,                                       !- Number of Vertices
  20.6660419086854, -11.8981019012427, 15, !- X,Y,Z Vertex 1 {m}
  20.6660419086854, -11.8981019012427, 0, !- X,Y,Z Vertex 2 {m}
  14.5625594404105, 3.88838274460805, 0,  !- X,Y,Z Vertex 3 {m}
  14.5625594404105, 3.88838274460805, 15; !- X,Y,Z Vertex 4 {m}

Shading:Building:Detailed,
  Shade_24f5029f_20,                      !- Name
  ,                                       !- Transmittance Schedule Name
  ,                                       !- Number of Vertices
  13.2847927617625, 54.7989966604926, 15, !- X,Y,Z Vertex 1 {m}
  13.2847927617625, 54.7989966604926, 0,  !- X,Y,Z Vertex 2 {m}
  3.07680243196494, 50.8707682082595, 0,  !- X,Y,Z Vertex 3 {m}
  3.07680243196494, 50.8707682082595, 15; !- X,Y,Z Vertex 4 {m}

Shading:Building:Detailed,
  Shade_24f5029f_21,                      !- Name
  ,                                       !- Transmittance Schedule Name
  ,                                       !- Number of Vertices
  3.07680243196494, 50.8707682082595, 15, !- X,Y,Z Vertex 1 {m}
  3.07680243196494, 50.8707682082595, 0,  !- X,Y,Z Vertex 2 {m}
  4.36169337822163, 47.5458646348353, 0,  !- X,Y,Z Vertex 3 {m}
  4.36169337822163, 47.5458646348353, 15; !- X,Y,Z Vertex 4 {m}

Shading:Building:Detailed,
  Shade_24f5029f_22,                      !- Name
  ,                                       !- Transmittance Schedule Name
  ,                                       !- Number of Vertices
  4.36169337822163, 47.5458646348353, 15, !- X,Y,Z Vertex 1 {m}
  4.36169337822163, 47.5458646348353, 0,  !- X,Y,Z Vertex 2 {m}
  -11.2646388286026, 41.5366684316596, 0, !- X,Y,Z Vertex 3 {m}
  -11.2646388286026, 41.5366684316596, 15; !- X,Y,Z Vertex 4 {m}

Shading:Building:Detailed,
  Shade_24f5029f_23,                      !- Name
  ,                                       !- Transmittance Schedule Name
  ,                                       !- Number of Vertices
  -11.2646388286026, 41.5366684316596, 15, !- X,Y,Z Vertex 1 {m}
  -11.2646388286026, 41.5366684316596, 0, !- X,Y,Z Vertex 2 {m}
  -12.6630094727174, 38.4107066122609, 0, !- X,Y,Z Vertex 3 {m}
  -12.6630094727174, 38.4107066122609, 15; !- X,Y,Z Vertex 4 {m}

Shading:Building:Detailed,
  Shade_24f5029f_24,                      !- Name
  ,                                       !- Transmittance Schedule Name
  ,                                       !- Number of Vertices
  -11.2646388286026, 41.5366684316596, 15, !- X,Y,Z Vertex 1 {m}
  -12.6630094727174, 38.4107066122609, 15, !- X,Y,Z Vertex 2 {m}
  -3.8319958868954, 15.5563822845643, 15, !- X,Y,Z Vertex 3 {m}
  4.53854075243381, 18.7842520094318, 15, !- X,Y,Z Vertex 4 {m}
  -1.74901347354849, 35.0868916754684, 15, !- X,Y,Z Vertex 5 {m}
  6.36846054854882, 38.2176152354247, 15, !- X,Y,Z Vertex 6 {m}
  5.79890216201274, 39.6842631696561, 15, !- X,Y,Z Vertex 7 {m}
  27.3598001095715, 47.9740370955883, 15, !- X,Y,Z Vertex 8 {m}
  24.5076657666375, 55.3525867777324, 15, !- X,Y,Z Vertex 9 {m}
  15.317190808607, 51.8325961121336, 15,  !- X,Y,Z Vertex 10 {m}
  14.2628993956187, 52.2575653690733, 15, !- X,Y,Z Vertex 11 {m}
  13.2847927617625, 54.7989966604926, 15, !- X,Y,Z Vertex 12 {m}
  3.07680243196494, 50.8707682082595, 15, !- X,Y,Z Vertex 13 {m}
  4.36169337822163, 47.5458646348353, 15; !- X,Y,Z Vertex 14 {m}

Shading:Building:Detailed,
  Shade_24f5029f_25,                      !- Name
  ,                                       !- Transmittance Schedule Name
  ,                                       !- Number of Vertices
  24.5076657666375, 55.3525867777324, 0,  !- X,Y,Z Vertex 1 {m}
  27.3598001095715, 47.9740370955883, 0,  !- X,Y,Z Vertex 2 {m}
  5.79890216201274, 39.6842631696561, 0,  !- X,Y,Z Vertex 3 {m}
  6.36846054854882, 38.2176152354247, 0,  !- X,Y,Z Vertex 4 {m}
  -1.74901347354849, 35.0868916754684, 0, !- X,Y,Z Vertex 5 {m}
  10.838797890784, 2.44867568860077, 0,   !- X,Y,Z Vertex 6 {m}
  14.5625594404105, 3.88838274460805, 0,  !- X,Y,Z Vertex 7 {m}
  20.6660419086854, -11.8981019012427, 0, !- X,Y,Z Vertex 8 {m}
  17.1380551557604, -13.262117119187, 0,  !- X,Y,Z Vertex 9 {m}
  16.9292500081579, -13.34290919547, 0,   !- X,Y,Z Vertex 10 {m}
  18.1722459699221, -16.5658023177659, 0, !- X,Y,Z Vertex 11 {m}
  17.071175836853, -16.9872661053436, 0,  !- X,Y,Z Vertex 12 {m}
  18.5602269156896, -20.8586045404169, 0, !- X,Y,Z Vertex 13 {m}
  12.6203119458841, -23.1480683942561, 0, !- X,Y,Z Vertex 14 {m}
  11.1263401571373, -19.2675949374368, 0, !- X,Y,Z Vertex 15 {m}
  9.81609153990318, -19.7643443198643, 0, !- X,Y,Z Vertex 16 {m}
  -12.6630094727174, 38.4107066122609, 0, !- X,Y,Z Vertex 17 {m}
  -11.2646388286026, 41.5366684316596, 0, !- X,Y,Z Vertex 18 {m}
  4.36169337822163, 47.5458646348353, 0,  !- X,Y,Z Vertex 19 {m}
  3.07680243196494, 50.8707682082595, 0,  !- X,Y,Z Vertex 20 {m}
  13.2847927617625, 54.7989966604926, 0,  !- X,Y,Z Vertex 21 {m}
  14.2628993956187, 52.2575653690733, 0,  !- X,Y,Z Vertex 22 {m}
  15.317190808607, 51.8325961121336, 0;   !- X,Y,Z Vertex 23 {m}

Shading:Building:Detailed,
  Shade_24f5029f_26,                      !- Name
  ,                                       !- Transmittance Schedule Name
  ,                                       !- Number of Vertices
  10.838797890784, 2.44867568860077, 12,  !- X,Y,Z Vertex 1 {m}
  10.838797890784, 2.44867568860077, 0,   !- X,Y,Z Vertex 2 {m}
  -1.74901347354849, 35.0868916754684, 0, !- X,Y,Z Vertex 3 {m}
  -1.74901347354849, 35.0868916754684, 15, !- X,Y,Z Vertex 4 {m}
  4.53854075243381, 18.7842520094318, 15, !- X,Y,Z Vertex 5 {m}
  4.53854075243381, 18.7842520094318, 12; !- X,Y,Z Vertex 6 {m}

Shading:Building:Detailed,
  Shade_24f5029f_27,                      !- Name
  ,                                       !- Transmittance Schedule Name
  ,                                       !- Number of Vertices
  -12.6630094727174, 38.4107066122609, 15, !- X,Y,Z Vertex 1 {m}
  -12.6630094727174, 38.4107066122609, 0, !- X,Y,Z Vertex 2 {m}
  9.81609153990318, -19.7643443198643, 0, !- X,Y,Z Vertex 3 {m}
  9.81609153990318, -19.7643443198643, 15, !- X,Y,Z Vertex 4 {m}
  2.48080033066798, -0.780892114206832, 15, !- X,Y,Z Vertex 5 {m}
  2.48080033066798, -0.780892114206832, 12, !- X,Y,Z Vertex 6 {m}
  -3.8319958868954, 15.5563822845643, 12, !- X,Y,Z Vertex 7 {m}
  -3.8319958868954, 15.5563822845643, 15; !- X,Y,Z Vertex 8 {m}

Shading:Building:Detailed,
  Shade_24f5029f_3,                       !- Name
  ,                                       !- Transmittance Schedule Name
  ,                                       !- Number of Vertices
  17.1380551557604, -13.262117119187, 15, !- X,Y,Z Vertex 1 {m}
  17.1380551557604, -13.262117119187, 0,  !- X,Y,Z Vertex 2 {m}
  20.6660419086854, -11.8981019012427, 0, !- X,Y,Z Vertex 3 {m}
  20.6660419086854, -11.8981019012427, 15; !- X,Y,Z Vertex 4 {m}

Shading:Building:Detailed,
  Shade_24f5029f_4,                       !- Name
  ,                                       !- Transmittance Schedule Name
  ,                                       !- Number of Vertices
  16.9292500081579, -13.34290919547, 15,  !- X,Y,Z Vertex 1 {m}
  16.9292500081579, -13.34290919547, 0,   !- X,Y,Z Vertex 2 {m}
  17.1380551557604, -13.262117119187, 0,  !- X,Y,Z Vertex 3 {m}
  17.1380551557604, -13.262117119187, 15; !- X,Y,Z Vertex 4 {m}

Shading:Building:Detailed,
  Shade_24f5029f_5,                       !- Name
  ,                                       !- Transmittance Schedule Name