
Version,
  23.2;                                   !- Version Identifier

Timestep,
  6;                                      !- Number of Timesteps per Hour

LifeCycleCost:Parameters,
  Life Cycle Cost Parameters,             !- Name
  EndOfYear,                              !- Discounting Convention
  ConstantDollar,                         !- Inflation Approach
  0.03,                                   !- Real Discount Rate
  ,                                       !- Nominal Discount Rate
  ,                                       !- Inflation
  ,                                       !- Base Date Month
  2011,                                   !- Base Date Year
  ,                                       !- Service Date Month
  2011,                                   !- Service Date Year
  25,                                     !- Length of Study Period in Years
  ,                                       !- Tax rate
  None;                                   !- Depreciation Method

LifeCycleCost:UsePriceEscalation,
  U.S. Avg  Commercial-Electricity,       !- Name
  Electricity,                            !- Resource
  2011,                                   !- Escalation Start Year
  January,                                !- Escalation Start Month
  0.9838,                                 !- Year Escalation 1
  0.9730,                                 !- Year Escalation 2
  0.9632,                                 !- Year Escalation 3
  0.9611,                                 !- Year Escalation 4
  0.9571,                                 !- Year Escalation 5
  0.9553,                                 !- Year Escalation 6
  0.9539,                                 !- Year Escalation 7
  0.9521,                                 !- Year Escalation 8
  0.9546,                                 !- Year Escalation 9
  0.9550,                                 !- Year Escalation 10
  0.9553,                                 !- Year Escalation 11
  0.9564,                                 !- Year Escalation 12
  0.9575,                                 !- Year Escalation 13
  0.9596,                                 !- Year Escalation 14
  0.9618,                                 !- Year Escalation 15
  0.9614,                                 !- Year Escalation 16
  0.9618,                                 !- Year Escalation 17
  0.9618,                                 !- Year Escalation 18
  0.9593,                                 !- Year Escalation 19
  0.9589,                                 !- Year Escalation 20
  0.9607,                                 !- Year Escalation 21
  0.9625,                                 !- Year Escalation 22
  0.9650,                                 !- Year Escalation 23
  0.9708,                                 !- Year Escalation 24
  0.9751,                                 !- Year Escalation 25
  0.9762,                                 !- Year Escalation 26
  0.9766,                                 !- Year Escalation 27
  0.9766,                                 !- Year Escalation 28
  0.9769,                                 !- Year Escalation 29
  0.9773;                                 !- Year Escalation 30

LifeCycleCost:UsePriceEscalation,
  U.S. Avg  Commercial-Distillate Oil,    !- Name
  FuelOilNo1,                             !- Resource
  2011,                                   !- Escalation Start Year
  January,                                !- Escalation Start Month
  0.9714,                                 !- Year Escalation 1
  0.9730,                                 !- Year Escalation 2
  0.9942,                                 !- Year Escalation 3
  1.0164,                                 !- Year Escalation 4
  1.0541,                                 !- Year Escalation 5
  1.0928,                                 !- Year Escalation 6
  1.1267,                                 !- Year Escalation 7
  1.1580,                                 !- Year Escalation 8
  1.1792,                                 !- Year Escalation 9
  1.1967,                                 !- Year Escalation 10
  1.2200,                                 !- Year Escalation 11
  1.2333,                                 !- Year Escalation 12
  1.2566,                                 !- Year Escalation 13
  1.2709,                                 !- Year Escalation 14
  1.2826,                                 !- Year Escalation 15
  1.2985,                                 !- Year Escalation 16
  1.3102,                                 !- Year Escalation 17
  1.3250,                                 !- Year Escalation 18
  1.3261,                                 !- Year Escalation 19
  1.3282,                                 !- Year Escalation 20
  1.3324,                                 !- Year Escalation 21
  1.3356,                                 !- Year Escalation 22
  1.3431,                                 !- Year Escalation 23
  1.3510,                                 !- Year Escalation 24
  1.3568,                                 !- Year Escalation 25
  1.3606,                                 !- Year Escalation 26
  1.3637,                                 !- Year Escalation 27
  1.3674,                                 !- Year Escalation 28
  1.3706,                                 !- Year Escalation 29
  1.3743;                                 !- Year Escalation 30

LifeCycleCost:UsePriceEscalation,
  U.S. Avg  Commercial-Residual Oil,      !- Name
  FuelOilNo2,                             !- Resource
  2011,                                   !- Escalation Start Year
  January,                                !- Escalation Start Month
  0.8469,                                 !- Year Escalation 1
  0.8257,                                 !- Year Escalation 2
  0.8681,                                 !- Year Escalation 3
  0.8988,                                 !- Year Escalation 4
  0.9289,                                 !- Year Escalation 5
  0.9604,                                 !- Year Escalation 6
  0.9897,                                 !- Year Escalation 7
  1.0075,                                 !- Year Escalation 8
  1.0314,                                 !- Year Escalation 9
  1.0554,                                 !- Year Escalation 10
  1.0861,                                 !- Year Escalation 11
  1.1278,                                 !- Year Escalation 12
  1.1497,                                 !- Year Escalation 13
  1.1620,                                 !- Year Escalation 14
  1.1743,                                 !- Year Escalation 15
  1.1852,                                 !- Year Escalation 16
  1.1948,                                 !- Year Escalation 17
  1.2037,                                 !- Year Escalation 18
  1.2071,                                 !- Year Escalation 19
  1.2119,                                 !- Year Escalation 20
  1.2139,                                 !- Year Escalation 21
  1.2194,                                 !- Year Escalation 22
  1.2276,                                 !- Year Escalation 23
  1.2365,                                 !- Year Escalation 24
  1.2420,                                 !- Year Escalation 25
  1.2461,                                 !- Year Escalation 26
  1.2509,                                 !- Year Escalation 27
  1.2550,                                 !- Year Escalation 28
  1.2591,                                 !- Year Escalation 29
  1.2638;                                 !- Year Escalation 30

LifeCycleCost:UsePriceEscalation,
  U.S. Avg  Commercial-Natural gas,       !- Name
  NaturalGas,                             !- Resource
  2011,                                   !- Escalation Start Year
  January,                                !- Escalation Start Month
  0.9823,                                 !- Year Escalation 1
  0.9557,                                 !- Year Escalation 2
  0.9279,                                 !- Year Escalation 3
  0.9257,                                 !- Year Escalation 4
  0.9346,                                 !- Year Escalation 5
  0.9412,                                 !- Year Escalation 6
  0.9512,                                 !- Year Escalation 7
  0.9645,                                 !- Year Escalation 8
  0.9856,                                 !- Year Escalation 9
  1.0067,                                 !- Year Escalation 10
  1.0222,                                 !- Year Escalation 11
  1.0410,                                 !- Year Escalation 12
  1.0610,                                 !- Year Escalation 13
  1.0787,                                 !- Year Escalation 14
  1.0942,                                 !- Year Escalation 15
  1.1098,                                 !- Year Escalation 16
  1.1220,                                 !- Year Escalation 17
  1.1308,                                 !- Year Escalation 18
  1.1386,                                 !- Year Escalation 19
  1.1486,                                 !- Year Escalation 20
  1.1619,                                 !- Year Escalation 21
  1.1763,                                 !- Year Escalation 22
  1.1918,                                 !- Year Escalation 23
  1.2118,                                 !- Year Escalation 24
  1.2284,                                 !- Year Escalation 25
  1.2439,                                 !- Year Escalation 26
  1.2605,                                 !- Year Escalation 27
  1.2772,                                 !- Year Escalation 28
  1.2938,                                 !- Year Escalation 29
  1.3115;                                 !- Year Escalation 30

LifeCycleCost:UsePriceEscalation,
  U.S. Avg  Commercial-Coal,              !- Name
  Coal,                                   !- Resource
  2011,                                   !- Escalation Start Year
  January,                                !- Escalation Start Month
  0.9970,                                 !- Year Escalation 1
  1.0089,                                 !- Year Escalation 2
  1.0089,                                 !- Year Escalation 3
  0.9941,                                 !- Year Escalation 4
  0.9941,                                 !- Year Escalation 5
  1.0000,                                 !- Year Escalation 6
  1.0030,                                 !- Year Escalation 7
  1.0059,                                 !- Year Escalation 8
  1.0089,                                 !- Year Escalation 9
  1.0119,                                 !- Year Escalation 10
  1.0148,                                 !- Year Escalation 11
  1.0178,                                 !- Year Escalation 12
  1.0208,                                 !- Year Escalation 13
  1.0267,                                 !- Year Escalation 14
  1.0297,                                 !- Year Escalation 15
  1.0356,                                 !- Year Escalation 16
  1.0415,                                 !- Year Escalation 17
  1.0534,                                 !- Year Escalation 18
  1.0564,                                 !- Year Escalation 19
  1.0593,                                 !- Year Escalation 20
  1.0653,                                 !- Year Escalation 21
  1.0712,                                 !- Year Escalation 22
  1.0742,                                 !- Year Escalation 23
  1.0801,                                 !- Year Escalation 24
  1.0831,                                 !- Year Escalation 25
  1.0831,                                 !- Year Escalation 26
  1.0861,                                 !- Year Escalation 27
  1.0890,                                 !- Year Escalation 28
  1.0920,                                 !- Year Escalation 29
  1.0950;                                 !- Year Escalation 30

Building,
  HVACDetailed-Oct-13,                    !- Name
  0,                                      !- North Axis {deg}
  City,                                   !- Terrain
  ,                                       !- Loads Convergence Tolerance Value {W}
  ,                                       !- Temperature Convergence Tolerance Value {deltaC}
  FullExteriorWithReflections,            !- Solar Distribution
  ,                                       !- Maximum Number of Warmup Days
  ;                                       !- Minimum Number of Warmup Days

Shading:Building:Detailed,
  Shade_05f59d6b,                         !- Name
  ,                                       !- Transmittance Schedule Name
  ,                                       !- Number of Vertices
  -35.1064334854061, 37.5386517290588, 4.5, !- X,Y,Z Vertex 1 {m}
  -35.1064334854061, 37.5386517290588, 8.88178419700125e-16, !- X,Y,Z Vertex 2 {m}
  -35.1986138534581, 37.8762947058047, 8.88178419700125e-16, !- X,Y,Z Vertex 3 {m}
  -35.1986138534581, 37.8762947058047, 4.5; !- X,Y,Z Vertex 4 {m}

Shading:Building:Detailed,
  Shade_06742d12,                         !- Name
  ,                                       !- Transmittance Schedule Name
  ,                                       !- Number of Vertices
  -35.3323483270836, 37.9816499967642, 8, !- X,Y,Z Vertex 1 {m}
  -35.3323483270836, 37.9816499967642, 4.5, !- X,Y,Z Vertex 2 {m}
  -35.9150404473452, 37.722018049254, 4.5, !- X,Y,Z Vertex 3 {m}
  -35.9150404473452, 37.722018049254, 8;  !- X,Y,Z Vertex 4 {m}

Shading:Building:Detailed,
  Shade_0c1788c3,                         !- Name
  ,                                       !- Transmittance Schedule Name
  ,                                       !- Number of Vertices
  -29.932526305006, 26.07304873313, 4.5,  !- X,Y,Z Vertex 1 {m}
  -29.932526305006, 26.07304873313, 8.88178419700125e-16, !- X,Y,Z Vertex 2 {m}
  -30.024706673058, 26.4106917098758, 8.88178419700125e-16, !- X,Y,Z Vertex 3 {m}
  -30.024706673058, 26.4106917098758, 4.5; !- X,Y,Z Vertex 4 {m}

Shading:Building:Detailed,
  Shade_195a2dd1,                         !- Name
  ,                                       !- Transmittance Schedule Name
  ,                                       !- Number of Vertices
  -34.807774702708, 36.8428520086711, 22, !- X,Y,Z Vertex 1 {m}
  -34.807774702708, 36.8428520086711, 8,  !- X,Y,Z Vertex 2 {m}
  -35.3323483270836, 37.9816499967642, 8, !- X,Y,Z Vertex 3 {m}
  -35.3323483270836, 37.9816499967642, 22; !- X,Y,Z Vertex 4 {m}

Shading:Building:Detailed,
  Shade_1b112975,                         !- Name
  ,                                       !- Transmittance Schedule Name
  ,                                       !- Number of Vertices
  -29.070208441606, 24.1621149004751, 4.5, !- X,Y,Z Vertex 1 {m}
  -29.070208441606, 24.1621149004751, 8.88178419700125e-16, !- X,Y,Z Vertex 2 {m}
  -29.162388809658, 24.499757877221, 8.88178419700125e-16, !- X,Y,Z Vertex 3 {m}
  -29.162388809658, 24.499757877221, 4.5; !- X,Y,Z Vertex 4 {m}

Shading:Building:Detailed,
  Shade_1b60d8e5,                         !- Name
  ,                                       !- Transmittance Schedule Name
  ,                                       !- Number of Vertices
  -34.2441156220061, 35.627717896404, 4.5, !- X,Y,Z Vertex 1 {m}
  -34.2441156220061, 35.627717896404, 8.88178419700125e-16, !- X,Y,Z Vertex 2 {m}
  -34.3362959900581, 35.9653608731499, 8.88178419700125e-16, !- X,Y,Z Vertex 3 {m}
  -34.3362959900581, 35.9653608731499, 4.5; !- X,Y,Z Vertex 4 {m}

Shading:Building:Detailed,
  Shade_1b61474f,                         !- Name
  ,                                       !- Transmittance Schedule Name
  ,                                       !- Number of Vertices
  -35.3323483270836, 37.9816499967642, 22, !- X,Y,Z Vertex 1 {m}
  -35.3323483270836, 37.9816499967642, 8, !- X,Y,Z Vertex 2 {m}
  -35.9150404473452, 37.722018049254, 8,  !- X,Y,Z Vertex 3 {m}
  -35.9150404473452, 37.722018049254, 22; !- X,Y,Z Vertex 4 {m}

Shading:Building:Detailed,
  Shade_217d6ad7,                         !- Name
  ,                                       !- Transmittance Schedule Name
  ,                                       !- Number of Vertices
  -28.207890578206, 22.2511810678203, 4.5, !- X,Y,Z Vertex 1 {m}
  -28.207890578206, 22.2511810678203, 8.88178419700125e-16, !- X,Y,Z Vertex 2 {m}
  -28.300070946258, 22.5888240445662, 8.88178419700125e-16, !- X,Y,Z Vertex 3 {m}
  -28.300070946258, 22.5888240445662, 4.5; !- X,Y,Z Vertex 4 {m}

Shading:Building:Detailed,
  Shade_22ea0e2a,                         !- Name
  ,                                       !- Transmittance Schedule Name
  ,                                       !- Number of Vertices
  -35.0765604442968, 2.54908510621846, 22.0140043625832, !- X,Y,Z Vertex 1 {m}
  -35.0107173242597, 2.3079115514, 22.0140043625832, !- X,Y,Z Vertex 2 {m}
  -50.6694353162394, -1.96709633306623, 22.0140043625832, !- X,Y,Z Vertex 3 {m}
  -50.7352784362765, -1.72592277824777, 22.0140043625832; !- X,Y,Z Vertex 4 {m}

Shading:Building:Detailed,
  Shade_28a1a574,                         !- Name
  ,                                       !- Transmittance Schedule Name
  ,                                       !- Number of Vertices
  -50.5473823176598, -2.41415831201081, 14.9049767808914, !- X,Y,Z Vertex 1 {m}
  -50.5525171989082, -2.39535000578937, 14.573779042244, !- X,Y,Z Vertex 2 {m}
  -34.5511341838124, 1.97320932243505, 14.573779042244, !- X,Y,Z Vertex 3 {m}
  -34.545999302564, 1.95440101621361, 14.9049767808914; !- X,Y,Z Vertex 4 {m}

Shading:Building:Detailed,
  Shade_35dfb0a6,                         !- Name
  ,                                       !- Transmittance Schedule Name
  ,                                       !- Number of Vertices
  -25.620936988006, 16.5183795698559, 4.5, !- X,Y,Z Vertex 1 {m}
  -25.620936988006, 16.5183795698559, 8.88178419700125e-16, !- X,Y,Z Vertex 2 {m}
  -25.713117356058, 16.8560225466017, 8.88178419700125e-16, !- X,Y,Z Vertex 3 {m}
  -25.713117356058, 16.8560225466017, 4.5; !- X,Y,Z Vertex 4 {m}

Shading:Building:Detailed,
  Shade_3b9bbcec,                         !- Name
  ,                                       !- Transmittance Schedule Name
  ,                                       !- Number of Vertices
  -39.9388969225122, 0.649973427031707, 21.8711809792519, !- X,Y,Z Vertex 1 {m}
  -39.9388969225122, 0.649973427031707, -0.128819020748134, !- X,Y,Z Vertex 2 {m}
  -39.6018477118827, 0.744328672047637, -0.128819020748134, !- X,Y,Z Vertex 3 {m}
  -39.6018477118827, 0.744328672047637, 21.8711809792519; !- X,Y,Z Vertex 4 {m}

Shading:Building:Detailed,
  Shade_41b6fe3d,                         !- Name
  ,                                       !- Transmittance Schedule Name
  ,                                       !- Number of Vertices
  -35.603305404594, 4.47847354476617, 18.5140043625832, !- X,Y,Z Vertex 1 {m}
  -35.5374622845568, 4.2372999899477, 18.5140043625832, !- X,Y,Z Vertex 2 {m}
  -51.1961802765365, -0.0377078945185301, 18.5140043625832, !- X,Y,Z Vertex 3 {m}
  -51.2620233965737, 0.20346566029993, 18.5140043625832; !- X,Y,Z Vertex 4 {m}

Shading:Building:Detailed,
  Shade_51c1126a,                         !- Name
  ,                                       !- Transmittance Schedule Name
  ,                                       !- Number of Vertices
  -50.547638257722, -2.41322084163287, 18.3202771501541, !- X,Y,Z Vertex 1 {m}
  -50.5527731389704, -2.39441253541143, 17.9890794115067, !- X,Y,Z Vertex 2 {m}
  -34.5513901238746, 1.97414679281299, 17.9890794115067, !- X,Y,Z Vertex 3 {m}
  -34.5462552426263, 1.95533848659156, 18.3202771501541; !- X,Y,Z Vertex 4 {m}

Shading:Building:Detailed,
  Shade_578c0b45,                         !- Name
  ,                                       !- Transmittance Schedule Name
  ,                                       !- Number of Vertices
  -30.794844168406, 27.9839825657848, 4.5, !- X,Y,Z Vertex 1 {m}
  -30.794844168406, 27.9839825657848, 8.88178419700125e-16, !- X,Y,Z Vertex 2 {m}
  -30.887024536458, 28.3216255425306, 8.88178419700125e-16, !- X,Y,Z Vertex 3 {m}
  -30.887024536458, 28.3216255425306, 4.5; !- X,Y,Z Vertex 4 {m}

Shading:Building:Detailed,
  Shade_5f220aec,                         !- Name
  ,                                       !- Transmittance Schedule Name
  ,                                       !- Number of Vertices
  -34.0538185241704, 35.2060112636819, 8, !- X,Y,Z Vertex 1 {m}
  -34.0538185241704, 35.2060112636819, 4.5, !- X,Y,Z Vertex 2 {m}
  -35.3323483270836, 37.9816499967642, 4.5, !- X,Y,Z Vertex 3 {m}
  -35.3323483270836, 37.9816499967642, 8; !- X,Y,Z Vertex 4 {m}

Shading:Building:Detailed,
  Shade_6756ebe6,                         !- Name
  ,                                       !- Transmittance Schedule Name
  ,                                       !- Number of Vertices
  -35.0765604442968, 2.54908510621846, 15.0140043625832, !- X,Y,Z Vertex 1 {m}
  -35.0107173242597, 2.3079115514, 15.0140043625832, !- X,Y,Z Vertex 2 {m}
  -50.6694353162394, -1.96709633306623, 15.0140043625832, !- X,Y,Z Vertex 3 {m}
  -50.7352784362765, -1.72592277824777, 15.0140043625832; !- X,Y,Z Vertex 4 {m}

Shading:Building:Detailed,
  Shade_70492d32,                         !- Name
  ,                                       !- Transmittance Schedule Name
  ,                                       !- Number of Vertices
  -27.345572714806, 20.3402472351655, 4.5, !- X,Y,Z Vertex 1 {m}
  -27.345572714806, 20.3402472351655, 8.88178419700125e-16, !- X,Y,Z Vertex 2 {m}
  -27.437753082858, 20.6778902119114, 8.88178419700125e-16, !- X,Y,Z Vertex 3 {m}
  -27.437753082858, 20.6778902119114, 4.5; !- X,Y,Z Vertex 4 {m}

Shading:Building:Detailed,
  Shade_7822c7a5,                         !- Name
  ,                                       !- Transmittance Schedule Name
  ,                                       !- Number of Vertices
  -31.657162031806, 29.8949163984396, 4.5, !- X,Y,Z Vertex 1 {m}
  -31.657162031806, 29.8949163984396, 8.88178419700125e-16, !- X,Y,Z Vertex 2 {m}
  -31.749342399858, 30.2325593751854, 8.88178419700125e-16, !- X,Y,Z Vertex 3 {m}
  -31.749342399858, 30.2325593751854, 4.5; !- X,Y,Z Vertex 4 {m}

Shading:Building:Detailed,
  Shade_865fa5e0,                         !- Name
  ,                                       !- Transmittance Schedule Name
  ,                                       !- Number of Vertices
  -35.603305404594, 4.47847354476617, 11.5140043625832, !- X,Y,Z Vertex 1 {m}
  -35.5374622845568, 4.2372999899477, 11.5140043625832, !- X,Y,Z Vertex 2 {m}
  -51.1961802765365, -0.0377078945185301, 11.5140043625832, !- X,Y,Z Vertex 3 {m}
  -51.2620233965737, 0.20346566029993, 11.5140043625832; !- X,Y,Z Vertex 4 {m}

Shading:Building:Detailed,
  Shade_956c4218,                         !- Name
  ,                                       !- Transmittance Schedule Name
  ,                                       !- Number of Vertices
  -33.3817977586061, 33.7167840637492, 4.5, !- X,Y,Z Vertex 1 {m}
  -33.3817977586061, 33.7167840637492, 8.88178419700125e-16, !- X,Y,Z Vertex 2 {m}
  -33.4739781266581, 34.054427040495, 8.88178419700125e-16, !- X,Y,Z Vertex 3 {m}
  -33.4739781266581, 34.054427040495, 4.5; !- X,Y,Z Vertex 4 {m}

Shading:Building:Detailed,
  Shade_9a944ac2,                         !- Name
  ,                                       !- Transmittance Schedule Name
  ,                                       !- Number of Vertices
  -50.5473823176598, -2.41415831201081, 11.4049767808914, !- X,Y,Z Vertex 1 {m}
  -50.5525171989082, -2.39535000578937, 11.073779042244, !- X,Y,Z Vertex 2 {m}
  -34.5511341838124, 1.97320932243505, 11.073779042244, !- X,Y,Z Vertex 3 {m}
  -34.545999302564, 1.95440101621361, 11.4049767808914; !- X,Y,Z Vertex 4 {m}

Shading:Building:Detailed,
  Shade_a64de26c,                         !- Name
  ,                                       !- Transmittance Schedule Name
  ,                                       !- Number of Vertices
  -35.3399329244454, 3.51377932549232, 11.5140043625832, !- X,Y,Z Vertex 1 {m}
  -35.2740898044082, 3.27260577067385, 11.5140043625832, !- X,Y,Z Vertex 2 {m}
  -50.9328077963879, -1.00240211379238, 11.5140043625832, !- X,Y,Z Vertex 3 {m}
  -50.9986509164251, -0.761228558973922, 11.5140043625832; !- X,Y,Z Vertex 4 {m}

Shading:Building:Detailed,
  Shade_b2419e34,                         !- Name
  ,                                       !- Transmittance Schedule Name
  ,                                       !- Number of Vertices
  -51.254859935813, 0.177224246974682, 8.22118097925186, !- X,Y,Z Vertex 1 {m}
  -50.5906344434238, -2.25573493099557, 8.22118097925186, !- X,Y,Z Vertex 2 {m}
  -34.5892507367153, 2.11282458604698, 8.22118097925186, !- X,Y,Z Vertex 3 {m}
  -35.6277775638727, 4.4435952478105, 8.22118097925186; !- X,Y,Z Vertex 4 {m}

Shading:Building:Detailed,
  Shade_bfa4cbec,                         !- Name
  ,                                       !- Transmittance Schedule Name
  ,                                       !- Number of Vertices
  -35.3399329244454, 3.51377932549232, 22.0140043625832, !- X,Y,Z Vertex 1 {m}
  -35.2740898044082, 3.27260577067385, 22.0140043625832, !- X,Y,Z Vertex 2 {m}
  -50.9328077963879, -1.00240211379238, 22.0140043625832, !- X,Y,Z Vertex 3 {m}
  -50.9986509164251, -0.761228558973922, 22.0140043625832; !- X,Y,Z Vertex 4 {m}

Shading:Building:Detailed,
  Shade_c2c083b5,                         !- Name
  ,                                       !- Transmittance Schedule Name
  ,                                       !- Number of Vertices
  -38.269204562529, 36.6771046047577, 22, !- X,Y,Z Vertex 1 {m}
  -38.269204562529, 36.6771046047577, 8,  !- X,Y,Z Vertex 2 {m}
  -38.8518966827906, 36.4174726572475, 8, !- X,Y,Z Vertex 3 {m}
  -38.8518966827906, 36.4174726572475, 22; !- X,Y,Z Vertex 4 {m}

Shading:Building:Detailed,
  Shade_c66139c5,                         !- Name
  ,                                       !- Transmittance Schedule Name
  ,                                       !- Number of Vertices
  -35.603305404594, 4.47847354476617, 15.0140043625832, !- X,Y,Z Vertex 1 {m}
  -35.5374622845568, 4.2372999899477, 15.0140043625832, !- X,Y,Z Vertex 2 {m}
  -51.1961802765365, -0.0377078945185301, 15.0140043625832, !- X,Y,Z Vertex 3 {m}
  -51.2620233965737, 0.20346566029993, 15.0140043625832; !- X,Y,Z Vertex 4 {m}

Shading:Building:Detailed,
  Shade_d01cb1de,                         !- Name
  ,                                       !- Transmittance Schedule Name
  ,                                       !- Number of Vertices
  -40.6233686777128, 35.6321911602615, 8, !- X,Y,Z Vertex 1 {m}
  -39.9606037985977, 34.1540585649346, 8, !- X,Y,Z Vertex 2 {m}
  -34.2832008144352, 35.7040540711452, 8, !- X,Y,Z Vertex 3 {m}
  -35.3323483270836, 37.9816499967642, 8; !- X,Y,Z Vertex 4 {m}

Shading:Building:Detailed,
  Shade_d2f0db92,                         !- Name
  ,                                       !- Transmittance Schedule Name
  ,                                       !- Number of Vertices
  -26.483254851406, 18.4293134025107, 4.5, !- X,Y,Z Vertex 1 {m}
  -26.483254851406, 18.4293134025107, 8.88178419700125e-16, !- X,Y,Z Vertex 2 {m}
  -26.575435219458, 18.7669563792565, 8.88178419700125e-16, !- X,Y,Z Vertex 3 {m}
  -26.575435219458, 18.7669563792565, 4.5; !- X,Y,Z Vertex 4 {m}

Shading:Building:Detailed,
  Shade_e7edf1a8,                         !- Name
  ,                                       !- Transmittance Schedule Name
  ,                                       !- Number of Vertices
  -35.3399329244454, 3.51377932549232, 18.5140043625832, !- X,Y,Z Vertex 1 {m}
  -35.2740898044082, 3.27260577067385, 18.5140043625832, !- X,Y,Z Vertex 2 {m}
  -50.9328077963879, -1.00240211379238, 18.5140043625832, !- X,Y,Z Vertex 3 {m}
  -50.9986509164251, -0.761228558973922, 18.5140043625832; !- X,Y,Z Vertex 4 {m}

Shading:Building:Detailed,
  Shade_e8c36098,                         !- Name
  ,                                       !- Transmittance Schedule Name
  ,                                       !- Number of Vertices
  -44.9514938976796, -0.718522486967635, 21.8711809792519, !- X,Y,Z Vertex 1 {m}
  -44.9514938976796, -0.718522486967635, -0.128819020748134, !- X,Y,Z Vertex 2 {m}
  -44.6144446870501, -0.624167241951714, -0.128819020748134, !- X,Y,Z Vertex 3 {m}
  -44.6144446870501, -0.624167241951714, 21.8711809792519; !- X,Y,Z Vertex 4 {m}

Shading:Building:Detailed,
  Shade_eb6a289f,                         !- Name
  ,                                       !- Transmittance Schedule Name
  ,                                       !- Number of Vertices
  -35.0765604442968, 2.54908510621846, 18.5140043625832, !- X,Y,Z Vertex 1 {m}
  -35.0107173242597, 2.3079115514, 18.5140043625832, !- X,Y,Z Vertex 2 {m}
  -50.6694353162394, -1.96709633306623, 18.5140043625832, !- X,Y,Z Vertex 3 {m}
  -50.7352784362765, -1.72592277824777, 18.5140043625832; !- X,Y,Z Vertex 4 {m}

Shading:Building:Detailed,
  Shade_ed5d3cdf,                         !- Name
  ,                                       !- Transmittance Schedule Name
  ,                                       !- Number of Vertices
  -40.6233686777128, 35.6321911602615, 15, !- X,Y,Z Vertex 1 {m}
  -39.9606037985977, 34.1540585649346, 15, !- X,Y,Z Vertex 2 {m}
  -34.2832008144352, 35.7040540711452, 15, !- X,Y,Z Vertex 3 {m}
  -35.3323483270836, 37.9816499967642, 15; !- X,Y,Z Vertex 4 {m}

Shading:Building:Detailed,
  Shade_f5429128,                         !- Name
  ,                                       !- Transmittance Schedule Name
  ,                                       !- Number of Vertices
  -35.3399329244454, 3.51377932549232, 15.0140043625832, !- X,Y,Z Vertex 1 {m}
  -35.2740898044082, 3.27260577067385, 15.0140043625832, !- X,Y,Z Vertex 2 {m}
  -50.9328077963879, -1.00240211379238, 15.0140043625832, !- X,Y,Z Vertex 3 {m}
  -50.9986509164251, -0.761228558973922, 15.0140043625832; !- X,Y,Z Vertex 4 {m}

Shading:Building:Detailed,